[General]
network = can4cqf.simulations.CAN2TSN.Can2tsn
sim-time-limit = 2s
**.bin-recording = true
**.scalar-recording = true
**.statistic-recording = true
**.vector-recording = true
**.gateway.bufferingDelay = 1us
**.gateway.transformDelay = 2us
# 定义CAN网络速度
**.canBus1.bandwidth = 2Mbps
**.canBus2.bandwidth = 2Mbps
**.addressTableFile = "addressTable.txt"
**.scheduler.tick = 100ns

**.scheduler.numPeriods = 1

**.scheduler.period[0].cycle_ticks = sec_to_tick(4s)
**.scheduler.period[0].offset_ticks = sec_to_tick(0ms)

# Maximum clock drift of 20ppm
**.scheduler.oscillator.max_drift = 200ppm
# Maximum clock drift change of 0.1ps per cycle
**.scheduler.oscillator.drift_change =  uniform(-50ppm,50ppm)
# precission of synchronisation
**.precission = 500ns
include gateway1.ini
include gateway2.ini
include switch1.ini
include switch2.ini
include canNodeSend.ini
include canNodeReceive.ini

include gateway_control_list.ini

**.configXML = xmldoc("GatewayConfig.xml")

**.gateway.buffering[*].typename = "CircularRotationBuffer"
**.gateway.transform[*].typename = "VarGatewayTransformation"
**.gateway.buffering[*].timeout = 100us
**.gateway.buffering[*].lamda = 0.6
